testcases/testcases_hydro/case1.m
function mpc = case1
% CASE1 Power flow data for 1 bus, 3 gen case
% This case is an easy example to check solution
% Adapted by Andrew Rosemberg
% Electrical Department
% PUC-Rio - Pontifical Catholic University of Rio de Janeiro
% Rio de Janeiro, RJ, BRS

%% MATPOWER Case Format : Version 2
mpc.version = '2';

%%-----  Power Flow Data  -----%%
%% system MVA base
mpc.baseMVA = 100;

%% bus data
%	bus_i	type	Pd	Qd	Gs	Bs	area	Vm		Va	baseKV	zone	Vmax	Vmin
mpc.bus = [
	1		3		100  0  0	0	1		1.00	0   0		1		1.1     0.9;
];

%% generator data
%	bus	Pg	Qg	Qmax	Qmin	Vg		mBase	status	Pmax	Pmin	Pc1	Pc2	Qc1min	Qc1max	Qc2min	Qc2max	ramp_agc	ramp_10	ramp_30	ramp_q	apf
mpc.gen = [
	1	0	0	10000	-10000	1.00	100		1		100   	-100	0	0	0	0	0	0	0	0	0	0	0;
	1	0   0	10000	-10000	1.00	100		1		50   	-50		0	0	0	0	0	0	0	0	0	0	0;
	1	0   0	10000	-10000	1.00	100		1		80   	-80     0	0	0	0	0	0	0	0	0	0	0;
];

%% branch data
%	fbus	tbus	r		x		b		rateA	rateB	rateC	ratio	angle	status	angmin	angmax
mpc.branch = [];

%%-----  OPF Data  -----%%
%% generator cost data
%	1	startup	shutdown	n	x1	y1	...	xn	yn
%	2	startup	shutdown	n	c(n-1)	...	c0
mpc.gencost = [
	2	0	0	2 20 	0;
	2	0	0	2 100 	0;
	2	0	0	2 0 	0;
];
